/*--------------------------------*- C++ -*----------------------------------*\
| =========                 |                                                 |
| \\      /  F ield         | OpenFOAM: The Open Source CFD Toolbox           |
|  \\    /   O peration     | Version:  v1912                                 |
|   \\  /    A nd           | Website:  www.openfoam.com                      |
|    \\/     M anipulation  |                                                 |
\*---------------------------------------------------------------------------*/
FoamFile
{
    version     2.0;
    format      ascii;
    class       dictionary;
    object      createPatchDict;
}

pointSync false;

// Patches to create.
patches
(
    {
        name inlet;
        patchInfo
        {
            type mappedPatch;

            // Optional: explicitly set transformation tensor.
            // Used when matching and synchronising points.
            //transform rotational;
            //rotationAxis (1 0 0);
            //rotationCentre (0 0 0);
            //transform translational;
            //separationVector (-0.6 0 0);

	    sampleMode      nearestCell;
	    samplePatch     none;
	    offsetMode      uniform;
	    offset          (0.2 0 0) ;
            // Optional non-default tolerance to be able to define cyclics
            // on bad meshes
            //matchTolerance 1E-2;

        }
        // How to construct: either from 'patches' or 'set'
        constructFrom patches;

        // If constructFrom = patches : names of patches. Wildcards allowed.
        patches ( inlet);
    }
);
