/*--------------------------------*- C++ -*----------------------------------*\
| =========                 |                                                 |
| \\      /  F ield         | OpenFOAM: The Open Source CFD Toolbox           |
|  \\    /   O peration     | Version:  v1912                                 |
|   \\  /    A nd           | Website:  www.openfoam.com                      |
|    \\/     M anipulation  |                                                 |
\*---------------------------------------------------------------------------*/
FoamFile
{
    version     2.0;
    format      ascii;
    class       dictionary;
    object      fvSolution;
}
// * * * * * * * * * * * * * * * * * * * * * * * * * * * * * * * * * * * * * //

solvers
{

    p
    {
        solver          GAMG;
        tolerance       1e-06;
        relTol          0.01;
        smoother        GaussSeidel;
    }

    pFinal
    {
        $p;
        smoother        DICGaussSeidel;
        tolerance       1e-06;
        relTol          0;
    }


    "(U|T)"
    {
        solver smoothSolver;
        smoother symGaussSeidel;
        tolerance 1e-07;
        relTol 0.01;
    }
    "(U|T)Final"
    {
        $U;
        tolerance 1e-07;
        relTol 0;
    }

   PotE
    {
      solver GAMG;
        smoother        GaussSeidel;
        tolerance 1e-07;
        relTol 0.001;
    };
    PotEFinal
    {
        $PotE;
        smoother        DICGaussSeidel;
       tolerance 1e-07;
    };

   
}

PIMPLE
{
    nOuterCorrectors 10; // increase to 10
    nCorrectors 2;
    nNonOrthogonalCorrectors 0;
    pRefCell 1001;
    pRefValue 0;
    
     residualControl
    {
        p
        {
            relTol  0;
            // if this tolerance is reached, leave
            tolerance 1e-04;
        }
        U
        {
            relTol  0;
            // if this tolerance is reached, leave
            tolerance 1e-04;

        }

    }


}

relaxationFactors
{
    fields
    {
        p       0.4;
        pFinal  0.4; // Last outer loop

    }
    equations
    {
        U       0.7;
        UFinal  0.7;
        "T.*"           0.7;
        "PotE.*"        0.7;// Last outer loop
    }
}

PotE
{
    nCorrectors     3;
    nNonOrthogonalCorrectors 0;
    PotERefCell        0;
    PotERefValue       0;
}


// ************************************************************************* //
